Version 4
SHEET 1 880 680
WIRE 80 112 48 112
WIRE 224 112 160 112
WIRE 48 128 48 112
WIRE 224 128 224 112
WIRE 48 240 48 208
WIRE 224 240 224 208
WIRE 224 240 48 240
WIRE 48 272 48 240
FLAG 48 272 0
SYMBOL ind 208 112 R0
SYMATTR InstName L1
SYMATTR Value 10m
SYMBOL res 176 96 R90
WINDOW 0 0 56 VBottom 2
WINDOW 3 32 56 VTop 2
SYMATTR InstName R1
SYMATTR Value 1k
SYMBOL voltage 48 112 R0
SYMATTR InstName V1
SYMATTR Value AC 1
TEXT 14 296 Left 2 !.ac dec 100 1K 0.1Meg
